*SPEF "ieee 1481-1999"
*DESIGN "user_proj_example"
*DATE "11:11:11 Fri 11 11, 1111"
*VENDOR "OpenRCX"
*PROGRAM "Parallel Extraction"
*VERSION "1.0"
*DESIGN_FLOW "NAME_SCOPE LOCAL" "PIN_CAP NONE"
*DIVIDER /
*DELIMITER :
*BUS_DELIMITER []
*T_UNIT 1 NS
*C_UNIT 1 PF
*R_UNIT 1 OHM
*L_UNIT 1 HENRY

*NAME_MAP
*1 io_in[0]
*2 io_in[10]
*3 io_in[11]
*4 io_in[12]
*5 io_in[13]
*6 io_in[14]
*7 io_in[15]
*8 io_in[16]
*9 io_in[17]
*10 io_in[18]
*11 io_in[19]
*12 io_in[1]
*13 io_in[20]
*14 io_in[21]
*15 io_in[22]
*16 io_in[23]
*17 io_in[24]
*18 io_in[25]
*19 io_in[26]
*20 io_in[27]
*21 io_in[28]
*22 io_in[29]
*23 io_in[2]
*24 io_in[30]
*25 io_in[31]
*26 io_in[32]
*27 io_in[33]
*28 io_in[34]
*29 io_in[35]
*30 io_in[36]
*31 io_in[37]
*32 io_in[3]
*33 io_in[4]
*34 io_in[5]
*35 io_in[6]
*36 io_in[7]
*37 io_in[8]
*38 io_in[9]
*39 net241
*40 net251
*41 net252
*42 net253
*43 net254
*44 net255
*45 net256
*46 net257
*47 net258
*48 net259
*49 net260
*50 net242
*51 net29
*52 net30
*53 net31
*54 net32
*55 net33
*56 net34
*57 net35
*58 net36
*59 net37
*60 net38
*61 net243
*62 net39
*63 net40
*64 net41
*65 net42
*66 net43
*67 net44
*68 net45
*69 net46
*70 net244
*71 net245
*72 net246
*73 net247
*74 net248
*75 net249
*76 net250
*77 net47
*78 net57
*79 net58
*80 net59
*81 net60
*82 net61
*83 net62
*84 net63
*85 net64
*86 net65
*87 net66
*88 net48
*89 net67
*90 net68
*91 net69
*92 net70
*93 net71
*94 net72
*95 net73
*96 net74
*97 net75
*98 net76
*99 net49
*100 io_out[30]
*101 io_out[31]
*102 io_out[32]
*103 io_out[33]
*104 io_out[34]
*105 io_out[35]
*106 io_out[36]
*107 io_out[37]
*108 net50
*109 net51
*110 net52
*111 net53
*112 net54
*113 net55
*114 net56
*115 net77
*116 net78
*117 net79
*118 la_data_in[0]
*119 la_data_in[100]
*120 la_data_in[101]
*121 la_data_in[102]
*122 la_data_in[103]
*123 la_data_in[104]
*124 la_data_in[105]
*125 la_data_in[106]
*126 la_data_in[107]
*127 la_data_in[108]
*128 la_data_in[109]
*129 la_data_in[10]
*130 la_data_in[110]
*131 la_data_in[111]
*132 la_data_in[112]
*133 la_data_in[113]
*134 la_data_in[114]
*135 la_data_in[115]
*136 la_data_in[116]
*137 la_data_in[117]
*138 la_data_in[118]
*139 la_data_in[119]
*140 la_data_in[11]
*141 la_data_in[120]
*142 la_data_in[121]
*143 la_data_in[122]
*144 la_data_in[123]
*145 la_data_in[124]
*146 la_data_in[125]
*147 la_data_in[126]
*148 la_data_in[127]
*149 la_data_in[12]
*150 la_data_in[13]
*151 la_data_in[14]
*152 la_data_in[15]
*153 la_data_in[16]
*154 la_data_in[17]
*155 la_data_in[18]
*156 la_data_in[19]
*157 la_data_in[1]
*158 la_data_in[20]
*159 la_data_in[21]
*160 la_data_in[22]
*161 la_data_in[23]
*162 la_data_in[24]
*163 la_data_in[25]
*164 la_data_in[26]
*165 la_data_in[27]
*166 la_data_in[28]
*167 la_data_in[29]
*168 la_data_in[2]
*169 la_data_in[30]
*170 la_data_in[31]
*171 la_data_in[32]
*172 la_data_in[33]
*173 la_data_in[34]
*174 la_data_in[35]
*175 la_data_in[36]
*176 la_data_in[37]
*177 la_data_in[38]
*178 la_data_in[39]
*179 la_data_in[3]
*180 la_data_in[40]
*181 la_data_in[41]
*182 la_data_in[42]
*183 la_data_in[43]
*184 la_data_in[44]
*185 la_data_in[45]
*186 la_data_in[46]
*187 la_data_in[47]
*188 la_data_in[48]
*189 la_data_in[49]
*190 la_data_in[4]
*191 la_data_in[50]
*192 la_data_in[51]
*193 la_data_in[52]
*194 la_data_in[53]
*195 la_data_in[54]
*196 la_data_in[55]
*197 la_data_in[56]
*198 la_data_in[57]
*199 la_data_in[58]
*200 la_data_in[59]
*201 la_data_in[5]
*202 la_data_in[60]
*203 la_data_in[61]
*204 la_data_in[62]
*205 la_data_in[63]
*206 la_data_in[64]
*207 la_data_in[65]
*208 la_data_in[66]
*209 la_data_in[67]
*210 la_data_in[68]
*211 la_data_in[69]
*212 la_data_in[6]
*213 la_data_in[70]
*214 la_data_in[71]
*215 la_data_in[72]
*216 la_data_in[73]
*217 la_data_in[74]
*218 la_data_in[75]
*219 la_data_in[76]
*220 la_data_in[77]
*221 la_data_in[78]
*222 la_data_in[79]
*223 la_data_in[7]
*224 la_data_in[80]
*225 la_data_in[81]
*226 la_data_in[82]
*227 la_data_in[83]
*228 la_data_in[84]
*229 la_data_in[85]
*230 la_data_in[86]
*231 la_data_in[87]
*232 la_data_in[88]
*233 la_data_in[89]
*234 la_data_in[8]
*235 la_data_in[90]
*236 la_data_in[91]
*237 la_data_in[92]
*238 la_data_in[93]
*239 la_data_in[94]
*240 la_data_in[95]
*241 la_data_in[96]
*242 la_data_in[97]
*243 la_data_in[98]
*244 la_data_in[99]
*245 la_data_in[9]
*246 net80
*247 net180
*248 net181
*249 net182
*250 net183
*251 net184
*252 net185
*253 net186
*254 net187
*255 net188
*256 net189
*257 net90
*258 net190
*259 net191
*260 net192
*261 net193
*262 net194
*263 net195
*264 net196
*265 net197
*266 net198
*267 net199
*268 net91
*269 net200
*270 net201
*271 net202
*272 net203
*273 net204
*274 net205
*275 net206
*276 net207
*277 net92
*278 net93
*279 net94
*280 net95
*281 net96
*282 net97
*283 net98
*284 net99
*285 net81
*286 net100
*287 net101
*288 net102
*289 net103
*290 net104
*291 net105
*292 net106
*293 net107
*294 net108
*295 net109
*296 net82
*297 net110
*298 net111
*299 net112
*300 net113
*301 net114
*302 net115
*303 net116
*304 net117
*305 net118
*306 net119
*307 net83
*308 net120
*309 net121
*310 net122
*311 net123
*312 net124
*313 net125
*314 net126
*315 net127
*316 net128
*317 net129
*318 net84
*319 net130
*320 net131
*321 net132
*322 net133
*323 net134
*324 net135
*325 net136
*326 net137
*327 net138
*328 net139
*329 net85
*330 net140
*331 net141
*332 net142
*333 net143
*334 net144
*335 net145
*336 net146
*337 net147
*338 net148
*339 net149
*340 net86
*341 net150
*342 net151
*343 net152
*344 net153
*345 net154
*346 net155
*347 net156
*348 net157
*349 net158
*350 net159
*351 net87
*352 net160
*353 net161
*354 net162
*355 net163
*356 net164
*357 net165
*358 net166
*359 net167
*360 net168
*361 net169
*362 net88
*363 net170
*364 net171
*365 net172
*366 net173
*367 net174
*368 net175
*369 net176
*370 net177
*371 net178
*372 net179
*373 net89
*374 la_oenb[0]
*375 la_oenb[100]
*376 la_oenb[101]
*377 la_oenb[102]
*378 la_oenb[103]
*379 la_oenb[104]
*380 la_oenb[105]
*381 la_oenb[106]
*382 la_oenb[107]
*383 la_oenb[108]
*384 la_oenb[109]
*385 la_oenb[10]
*386 la_oenb[110]
*387 la_oenb[111]
*388 la_oenb[112]
*389 la_oenb[113]
*390 la_oenb[114]
*391 la_oenb[115]
*392 la_oenb[116]
*393 la_oenb[117]
*394 la_oenb[118]
*395 la_oenb[119]
*396 la_oenb[11]
*397 la_oenb[120]
*398 la_oenb[121]
*399 la_oenb[122]
*400 la_oenb[123]
*401 la_oenb[124]
*402 la_oenb[125]
*403 la_oenb[126]
*404 la_oenb[127]
*405 la_oenb[12]
*406 la_oenb[13]
*407 la_oenb[14]
*408 la_oenb[15]
*409 la_oenb[16]
*410 la_oenb[17]
*411 la_oenb[18]
*412 la_oenb[19]
*413 la_oenb[1]
*414 la_oenb[20]
*415 la_oenb[21]
*416 la_oenb[22]
*417 la_oenb[23]
*418 la_oenb[24]
*419 la_oenb[25]
*420 la_oenb[26]
*421 la_oenb[27]
*422 la_oenb[28]
*423 la_oenb[29]
*424 la_oenb[2]
*425 la_oenb[30]
*426 la_oenb[31]
*427 la_oenb[32]
*428 la_oenb[33]
*429 la_oenb[34]
*430 la_oenb[35]
*431 la_oenb[36]
*432 la_oenb[37]
*433 la_oenb[38]
*434 la_oenb[39]
*435 la_oenb[3]
*436 la_oenb[40]
*437 la_oenb[41]
*438 la_oenb[42]
*439 la_oenb[43]
*440 la_oenb[44]
*441 la_oenb[45]
*442 la_oenb[46]
*443 la_oenb[47]
*444 la_oenb[48]
*445 la_oenb[49]
*446 la_oenb[4]
*447 la_oenb[50]
*448 la_oenb[51]
*449 la_oenb[52]
*450 la_oenb[53]
*451 la_oenb[54]
*452 la_oenb[55]
*453 la_oenb[56]
*454 la_oenb[57]
*455 la_oenb[58]
*456 la_oenb[59]
*457 la_oenb[5]
*458 la_oenb[60]
*459 la_oenb[61]
*460 la_oenb[62]
*461 la_oenb[63]
*462 la_oenb[64]
*463 la_oenb[65]
*464 la_oenb[66]
*465 la_oenb[67]
*466 la_oenb[68]
*467 la_oenb[69]
*468 la_oenb[6]
*469 la_oenb[70]
*470 la_oenb[71]
*471 la_oenb[72]
*472 la_oenb[73]
*473 la_oenb[74]
*474 la_oenb[75]
*475 la_oenb[76]
*476 la_oenb[77]
*477 la_oenb[78]
*478 la_oenb[79]
*479 la_oenb[7]
*480 la_oenb[80]
*481 la_oenb[81]
*482 la_oenb[82]
*483 la_oenb[83]
*484 la_oenb[84]
*485 la_oenb[85]
*486 la_oenb[86]
*487 la_oenb[87]
*488 la_oenb[88]
*489 la_oenb[89]
*490 la_oenb[8]
*491 la_oenb[90]
*492 la_oenb[91]
*493 la_oenb[92]
*494 la_oenb[93]
*495 la_oenb[94]
*496 la_oenb[95]
*497 la_oenb[96]
*498 la_oenb[97]
*499 la_oenb[98]
*500 la_oenb[99]
*501 la_oenb[9]
*504 wb_clk_i
*505 wb_rst_i
*506 net208
*507 wbs_adr_i[0]
*508 wbs_adr_i[10]
*509 wbs_adr_i[11]
*510 wbs_adr_i[12]
*511 wbs_adr_i[13]
*512 wbs_adr_i[14]
*513 wbs_adr_i[15]
*514 wbs_adr_i[16]
*515 wbs_adr_i[17]
*516 wbs_adr_i[18]
*517 wbs_adr_i[19]
*518 wbs_adr_i[1]
*519 wbs_adr_i[20]
*520 wbs_adr_i[21]
*521 wbs_adr_i[22]
*522 wbs_adr_i[23]
*523 wbs_adr_i[24]
*524 wbs_adr_i[25]
*525 wbs_adr_i[26]
*526 wbs_adr_i[27]
*527 wbs_adr_i[28]
*528 wbs_adr_i[29]
*529 wbs_adr_i[2]
*530 wbs_adr_i[30]
*531 wbs_adr_i[31]
*532 wbs_adr_i[3]
*533 wbs_adr_i[4]
*534 wbs_adr_i[5]
*535 wbs_adr_i[6]
*536 wbs_adr_i[7]
*537 wbs_adr_i[8]
*538 wbs_adr_i[9]
*539 wbs_cyc_i
*540 wbs_dat_i[0]
*541 wbs_dat_i[10]
*542 wbs_dat_i[11]
*543 wbs_dat_i[12]
*544 wbs_dat_i[13]
*545 wbs_dat_i[14]
*546 wbs_dat_i[15]
*547 wbs_dat_i[16]
*548 wbs_dat_i[17]
*549 wbs_dat_i[18]
*550 wbs_dat_i[19]
*551 wbs_dat_i[1]
*552 wbs_dat_i[20]
*553 wbs_dat_i[21]
*554 wbs_dat_i[22]
*555 wbs_dat_i[23]
*556 wbs_dat_i[24]
*557 wbs_dat_i[25]
*558 wbs_dat_i[26]
*559 wbs_dat_i[27]
*560 wbs_dat_i[28]
*561 wbs_dat_i[29]
*562 wbs_dat_i[2]
*563 wbs_dat_i[30]
*564 wbs_dat_i[31]
*565 wbs_dat_i[3]
*566 wbs_dat_i[4]
*567 wbs_dat_i[5]
*568 wbs_dat_i[6]
*569 wbs_dat_i[7]
*570 wbs_dat_i[8]
*571 wbs_dat_i[9]
*572 net209
*573 net219
*574 net220
*575 net221
*576 net222
*577 net223
*578 net224
*579 net225
*580 net226
*581 net227
*582 net228
*583 net210
*584 net229
*585 net230
*586 net231
*587 net232
*588 net233
*589 net234
*590 net235
*591 net236
*592 net237
*593 net238
*594 net211
*595 net239
*596 net240
*597 net212
*598 net213
*599 net214
*600 net215
*601 net216
*602 net217
*603 net218
*604 wbs_sel_i[0]
*605 wbs_sel_i[1]
*606 wbs_sel_i[2]
*607 wbs_sel_i[3]
*608 wbs_stb_i
*609 wbs_we_i
*610 _000_
*611 _001_
*612 _002_
*613 _003_
*614 _004_
*615 _005_
*616 _006_
*617 _007_
*618 _008_
*619 _009_
*620 _010_
*621 _011_
*622 _012_
*623 _013_
*624 _014_
*625 _015_
*626 _016_
*627 _017_
*628 _018_
*629 _019_
*630 _020_
*631 _021_
*632 _022_
*633 _023_
*634 _024_
*635 _025_
*636 _026_
*637 _027_
*638 _028_
*639 _029_
*640 _030_
*641 _031_
*642 _032_
*643 _033_
*644 _034_
*645 _035_
*646 _036_
*647 _037_
*648 _038_
*649 _039_
*650 _040_
*651 _041_
*652 _042_
*653 _043_
*654 _044_
*655 _045_
*656 _046_
*657 _047_
*658 _048_
*659 _049_
*660 _050_
*661 _051_
*662 _052_
*663 _053_
*664 _054_
*665 _055_
*666 _056_
*667 _057_
*668 _058_
*669 _059_
*670 _060_
*671 _061_
*672 _062_
*673 _063_
*674 _064_
*675 _065_
*676 _066_
*677 _067_
*678 _068_
*679 _069_
*680 _070_
*681 _071_
*682 _072_
*683 _073_
*684 _074_
*685 _075_
*686 _076_
*687 _077_
*688 _078_
*689 _079_
*690 _080_
*691 _081_
*692 _082_
*693 _083_
*694 _084_
*695 _085_
*696 _086_
*697 _087_
*698 _088_
*699 _089_
*700 _090_
*701 _091_
*702 _092_
*703 _093_
*704 _094_
*705 _095_
*706 _096_
*707 _097_
*708 _098_
*709 _099_
*710 _100_
*711 _101_
*712 _102_
*713 _103_
*714 _104_
*715 _105_
*716 _106_
*717 _107_
*718 _108_
*719 _109_
*720 _110_
*721 _111_
*722 _112_
*723 _113_
*724 _114_
*725 _115_
*726 _116_
*727 _117_
*728 _118_
*729 _119_
*730 _120_
*731 _121_
*732 _122_
*733 net1
*734 net10
*735 net11
*736 net12
*737 net13
*738 net14
*739 net15
*740 net16
*741 net17
*742 net18
*743 net19
*744 net2
*745 net20
*746 net21
*747 net22
*748 net23
*749 net24
*750 net25
*751 net26
*752 net27
*753 net28
*754 net3
*755 net4
*756 net5
*757 net6
*758 net7
*759 net8
*760 net9
*761 ANTENNA__123__A
*762 ANTENNA__124__A
*763 ANTENNA__125__A
*764 ANTENNA__125__B
*765 ANTENNA__126__A
*766 ANTENNA__127__B1
*767 ANTENNA__127__C1
*768 ANTENNA__128__A
*769 ANTENNA__128__B
*770 ANTENNA__128__C_N
*771 ANTENNA__130__A
*772 ANTENNA__130__C_N
*773 ANTENNA__132__A2
*774 ANTENNA__132__B1
*775 ANTENNA__133__A_N
*776 ANTENNA__133__B
*777 ANTENNA__133__C
*778 ANTENNA__135__A
*779 ANTENNA__135__B
*780 ANTENNA__135__C_N
*781 ANTENNA__137__B
*782 ANTENNA__138__A1
*783 ANTENNA__138__A3
*784 ANTENNA__140__A3
*785 ANTENNA__141__A
*786 ANTENNA__141__B
*787 ANTENNA__141__C_N
*788 ANTENNA__143__A
*789 ANTENNA__143__B
*790 ANTENNA__144__A1
*791 ANTENNA__144__B1
*792 ANTENNA__148__B_N
*793 ANTENNA__150__A
*794 ANTENNA__150__B
*795 ANTENNA__151__A
*796 ANTENNA__151__B
*797 ANTENNA__151__C
*798 ANTENNA__152__A2
*799 ANTENNA__152__B1
*800 ANTENNA__153__A2
*801 ANTENNA__153__B1
*802 ANTENNA__154__B
*803 ANTENNA__155__A2
*804 ANTENNA__155__B1
*805 ANTENNA__156__A2
*806 ANTENNA__156__A3
*807 ANTENNA__157__A2
*808 ANTENNA__157__A3
*809 ANTENNA__158__A1
*810 ANTENNA__159__A2
*811 ANTENNA__159__B1
*812 ANTENNA__160__A2
*813 ANTENNA__160__B1
*814 ANTENNA__161__A
*815 ANTENNA__161__B
*816 ANTENNA__163__A2
*817 ANTENNA__163__A3
*818 ANTENNA__164__A2
*819 ANTENNA__164__B1
*820 ANTENNA__165__B
*821 ANTENNA__166__A2
*822 ANTENNA__166__A3
*823 ANTENNA__168__A1
*824 ANTENNA__168__A2
*825 ANTENNA__169__A
*826 ANTENNA__173__B
*827 ANTENNA__173__C
*828 ANTENNA__174__A2
*829 ANTENNA__174__B1
*830 ANTENNA__175__A2
*831 ANTENNA__175__B1
*832 ANTENNA__176__A2
*833 ANTENNA__176__B1
*834 ANTENNA__177__A2
*835 ANTENNA__177__A3
*836 ANTENNA__177__B1
*837 ANTENNA__178__A2
*838 ANTENNA__179__A1
*839 ANTENNA__179__A2
*840 ANTENNA__179__A3
*841 ANTENNA__180__A
*842 ANTENNA__181__A
*843 ANTENNA__190__A1
*844 ANTENNA__191__A
*845 ANTENNA__196__A2
*846 ANTENNA__196__A3
*847 ANTENNA__197__A2
*848 ANTENNA__198__A2
*849 ANTENNA__198__B1
*850 ANTENNA__199__A2
*851 ANTENNA__199__B1
*852 ANTENNA__200__A2
*853 ANTENNA__200__B1
*854 ANTENNA__201__A2
*855 ANTENNA__201__A3
*856 ANTENNA__203__B
*857 ANTENNA__203__C
*858 ANTENNA__204__A2
*859 ANTENNA__204__B1
*860 ANTENNA__205__A2
*861 ANTENNA__205__B1
*862 ANTENNA__206__A2
*863 ANTENNA__206__B1
*864 ANTENNA__207__A2
*865 ANTENNA__207__A3
*866 ANTENNA__207__B1
*867 ANTENNA__208__A2
*868 ANTENNA__209__A1
*869 ANTENNA__209__A2
*870 ANTENNA__210__A
*871 ANTENNA__219__A1
*872 ANTENNA__220__A
*873 ANTENNA__224__A2
*874 ANTENNA__224__B1
*875 ANTENNA__225__A
*876 ANTENNA__226__A0
*877 ANTENNA__227__A_N
*878 ANTENNA__228__A1
*879 ANTENNA__228__B1
*880 ANTENNA__229__A
*881 ANTENNA__229__C
*882 ANTENNA__231__A1
*883 ANTENNA__233__B
*884 ANTENNA__234__B
*885 ANTENNA__236__A1
*886 ANTENNA__236__A2
*887 ANTENNA__240__A
*888 ANTENNA__241__A1_N
*889 ANTENNA__241__B1
*890 ANTENNA__242__B2
*891 ANTENNA__243__A2
*892 ANTENNA__243__B1
*893 ANTENNA__244__B1
*894 ANTENNA__246__CLK
*895 ANTENNA__247__CLK
*896 ANTENNA__248__CLK
*897 ANTENNA__249__CLK
*898 ANTENNA__250__CLK
*899 ANTENNA__251__CLK
*900 ANTENNA__252__CLK
*901 ANTENNA__253__CLK
*902 ANTENNA_input10_A
*903 ANTENNA_input11_A
*904 ANTENNA_input12_A
*905 ANTENNA_input13_A
*906 ANTENNA_input14_A
*907 ANTENNA_input15_A
*908 ANTENNA_input16_A
*909 ANTENNA_input17_A
*910 ANTENNA_input18_A
*911 ANTENNA_input19_A
*912 ANTENNA_input1_A
*913 ANTENNA_input20_A
*914 ANTENNA_input2_A
*915 ANTENNA_input3_A
*916 ANTENNA_input4_A
*917 ANTENNA_input5_A
*918 ANTENNA_input6_A
*919 ANTENNA_input7_A
*920 ANTENNA_input8_A
*921 ANTENNA_input9_A
*922 FILLER_0_1002
*923 FILLER_0_1009
*924 FILLER_0_1014
*925 FILLER_0_1021
*926 FILLER_0_1025
*927 FILLER_0_1029
*928 FILLER_0_1035
*929 FILLER_0_1037
*930 FILLER_0_1042
*931 FILLER_0_1049
*932 FILLER_0_1056
*933 FILLER_0_1065
*934 FILLER_0_1070
*935 FILLER_0_1077
*936 FILLER_0_1084
*937 FILLER_0_109
*938 FILLER_0_1093
*939 FILLER_0_1098
*940 FILLER_0_1105
*941 FILLER_0_1112
*942 FILLER_0_1121
*943 FILLER_0_1126
*944 FILLER_0_113
*945 FILLER_0_1133
*946 FILLER_0_1140
*947 FILLER_0_1149
*948 FILLER_0_1154
*949 FILLER_0_1161
*950 FILLER_0_1168
*951 FILLER_0_1177
*952 FILLER_0_1182
*953 FILLER_0_1189
*954 FILLER_0_1196
*955 FILLER_0_1205
*956 FILLER_0_1210
*957 FILLER_0_1214
*958 FILLER_0_1218
*959 FILLER_0_1227
*960 FILLER_0_1231
*961 FILLER_0_1233
*962 FILLER_0_1238
*963 FILLER_0_1245
*964 FILLER_0_125
*965 FILLER_0_1254
*966 FILLER_0_1261
*967 FILLER_0_1266
*968 FILLER_0_1273
*969 FILLER_0_1277
*970 FILLER_0_1281
*971 FILLER_0_1287
*972 FILLER_0_1289
*973 FILLER_0_1294
*974 FILLER_0_1301
*975 FILLER_0_1308
*976 FILLER_0_1317
*977 FILLER_0_1322
*978 FILLER_0_1329
*979 FILLER_0_1336
*980 FILLER_0_1345
*981 FILLER_0_1350
*982 FILLER_0_1357
*983 FILLER_0_1364
*984 FILLER_0_137
*985 FILLER_0_1373
*986 FILLER_0_1378
*987 FILLER_0_1385
*988 FILLER_0_1392
*989 FILLER_0_1401
*990 FILLER_0_1406
*991 FILLER_0_141
*992 FILLER_0_1413
*993 FILLER_0_1420
*994 FILLER_0_1429
*995 FILLER_0_1434
*996 FILLER_0_1441
*997 FILLER_0_1448
*998 FILLER_0_1457
*999 FILLER_0_1462
*1000 FILLER_0_1466
*1001 FILLER_0_1470
*1002 FILLER_0_1479
*1003 FILLER_0_1483
*1004 FILLER_0_1485
*1005 FILLER_0_1490
*1006 FILLER_0_1497
*1007 FILLER_0_15
*1008 FILLER_0_1506
*1009 FILLER_0_1513
*1010 FILLER_0_1518
*1011 FILLER_0_1525
*1012 FILLER_0_1529
*1013 FILLER_0_153
*1014 FILLER_0_1533
*1015 FILLER_0_1539
*1016 FILLER_0_1541
*1017 FILLER_0_1546
*1018 FILLER_0_1553
*1019 FILLER_0_1560
*1020 FILLER_0_1569
*1021 FILLER_0_1574
*1022 FILLER_0_1581
*1023 FILLER_0_1588
*1024 FILLER_0_1597
*1025 FILLER_0_1602
*1026 FILLER_0_1609
*1027 FILLER_0_1616
*1028 FILLER_0_1625
*1029 FILLER_0_1630
*1030 FILLER_0_1637
*1031 FILLER_0_1644
*1032 FILLER_0_165
*1033 FILLER_0_1653
*1034 FILLER_0_1658
*1035 FILLER_0_1665
*1036 FILLER_0_1672
*1037 FILLER_0_1681
*1038 FILLER_0_1686
*1039 FILLER_0_169
*1040 FILLER_0_1693
*1041 FILLER_0_1700
*1042 FILLER_0_1709
*1043 FILLER_0_1714
*1044 FILLER_0_1726
*1045 FILLER_0_1734
*1046 FILLER_0_1737
*1047 FILLER_0_1749
*1048 FILLER_0_1761
*1049 FILLER_0_1765
*1050 FILLER_0_1777
*1051 FILLER_0_1789
*1052 FILLER_0_1793
*1053 FILLER_0_1805
*1054 FILLER_0_181
*1055 FILLER_0_1817
*1056 FILLER_0_1821
*1057 FILLER_0_1833
*1058 FILLER_0_1845
*1059 FILLER_0_1849
*1060 FILLER_0_1861
*1061 FILLER_0_1873
*1062 FILLER_0_1877
*1063 FILLER_0_1889
*1064 FILLER_0_1901
*1065 FILLER_0_1905
*1066 FILLER_0_1917
*1067 FILLER_0_193
*1068 FILLER_0_197
*1069 FILLER_0_209
*1070 FILLER_0_221
*1071 FILLER_0_225
*1072 FILLER_0_233
*1073 FILLER_0_237
*1074 FILLER_0_249
*1075 FILLER_0_253
*1076 FILLER_0_258
*1077 FILLER_0_267
*1078 FILLER_0_27
*1079 FILLER_0_278
*1080 FILLER_0_281
*1081 FILLER_0_287
*1082 FILLER_0_29
*1083 FILLER_0_291
*1084 FILLER_0_299
*1085 FILLER_0_3
*1086 FILLER_0_303
*1087 FILLER_0_307
*1088 FILLER_0_309
*1089 FILLER_0_320
*1090 FILLER_0_327
*1091 FILLER_0_334
*1092 FILLER_0_337
*1093 FILLER_0_348
*1094 FILLER_0_355
*1095 FILLER_0_362
*1096 FILLER_0_365
*1097 FILLER_0_371
*1098 FILLER_0_375
*1099 FILLER_0_379
*1100 FILLER_0_383
*1101 FILLER_0_390
*1102 FILLER_0_393
*1103 FILLER_0_402
*1104 FILLER_0_41
*1105 FILLER_0_411
*1106 FILLER_0_418
*1107 FILLER_0_421
*1108 FILLER_0_425
*1109 FILLER_0_429
*1110 FILLER_0_438
*1111 FILLER_0_442
*1112 FILLER_0_446
*1113 FILLER_0_449
*1114 FILLER_0_456
*1115 FILLER_0_465
*1116 FILLER_0_474
*1117 FILLER_0_477
*1118 FILLER_0_483
*1119 FILLER_0_492
*1120 FILLER_0_501
*1121 FILLER_0_505
*1122 FILLER_0_510
*1123 FILLER_0_519
*1124 FILLER_0_528
*1125 FILLER_0_53
*1126 FILLER_0_533
*1127 FILLER_0_544
*1128 FILLER_0_551
*1129 FILLER_0_558
*1130 FILLER_0_561
*1131 FILLER_0_57
*1132 FILLER_0_570
*1133 FILLER_0_579
*1134 FILLER_0_586
*1135 FILLER_0_589
*1136 FILLER_0_593
*1137 FILLER_0_597
*1138 FILLER_0_606
*1139 FILLER_0_610
*1140 FILLER_0_614
*1141 FILLER_0_617
*1142 FILLER_0_624
*1143 FILLER_0_633
*1144 FILLER_0_642
*1145 FILLER_0_645
*1146 FILLER_0_651
*1147 FILLER_0_660
*1148 FILLER_0_669
*1149 FILLER_0_673
*1150 FILLER_0_678
*1151 FILLER_0_687
*1152 FILLER_0_69
*1153 FILLER_0_696
*1154 FILLER_0_701
*1155 FILLER_0_712
*1156 FILLER_0_719
*1157 FILLER_0_726
*1158 FILLER_0_729
*1159 FILLER_0_740
*1160 FILLER_0_747
*1161 FILLER_0_754
*1162 FILLER_0_757
*1163 FILLER_0_768
*1164 FILLER_0_775
*1165 FILLER_0_782
*1166 FILLER_0_785
*1167 FILLER_0_791
*1168 FILLER_0_795
*1169 FILLER_0_799
*1170 FILLER_0_803
*1171 FILLER_0_81
*1172 FILLER_0_810
*1173 FILLER_0_813
*1174 FILLER_0_822
*1175 FILLER_0_831
*1176 FILLER_0_838
*1177 FILLER_0_841
*1178 FILLER_0_845
*1179 FILLER_0_849
*1180 FILLER_0_85
*1181 FILLER_0_858
*1182 FILLER_0_862
*1183 FILLER_0_866
*1184 FILLER_0_869
*1185 FILLER_0_876
*1186 FILLER_0_885
*1187 FILLER_0_894
*1188 FILLER_0_897
*1189 FILLER_0_903
*1190 FILLER_0_912
*1191 FILLER_0_921
*1192 FILLER_0_925
*1193 FILLER_0_930
*1194 FILLER_0_939
*1195 FILLER_0_948
*1196 FILLER_0_953
*1197 FILLER_0_958
*1198 FILLER_0_962
*1199 FILLER_0_966
*1200 FILLER_0_97
*1201 FILLER_0_975
*1202 FILLER_0_979
*1203 FILLER_0_981
*1204 FILLER_0_986
*1205 FILLER_0_993
*1206 FILLER_100_1005
*1207 FILLER_100_1017
*1208 FILLER_100_1029
*1209 FILLER_100_1035
*1210 FILLER_100_1037
*1211 FILLER_100_1049
*1212 FILLER_100_1061
*1213 FILLER_100_1073
*1214 FILLER_100_1085
*1215 FILLER_100_109
*1216 FILLER_100_1091
*1217 FILLER_100_1093
*1218 FILLER_100_1105
*1219 FILLER_100_1117
*1220 FILLER_100_1129
*1221 FILLER_100_1141
*1222 FILLER_100_1147
*1223 FILLER_100_1149
*1224 FILLER_100_1161
*1225 FILLER_100_1173
*1226 FILLER_100_1185
*1227 FILLER_100_1197
*1228 FILLER_100_1203
*1229 FILLER_100_1205
*1230 FILLER_100_121
*1231 FILLER_100_1217
*1232 FILLER_100_1229
*1233 FILLER_100_1241
*1234 FILLER_100_1253
*1235 FILLER_100_1259
*1236 FILLER_100_1261
*1237 FILLER_100_1273
*1238 FILLER_100_1285
*1239 FILLER_100_1297
*1240 FILLER_100_1309
*1241 FILLER_100_1315
*1242 FILLER_100_1317
*1243 FILLER_100_1329
*1244 FILLER_100_133
*1245 FILLER_100_1341
*1246 FILLER_100_1353
*1247 FILLER_100_1365
*1248 FILLER_100_1371
*1249 FILLER_100_1373
*1250 FILLER_100_1385
*1251 FILLER_100_139
*1252 FILLER_100_1397
*1253 FILLER_100_1409
*1254 FILLER_100_141
*1255 FILLER_100_1421
*1256 FILLER_100_1427
*1257 FILLER_100_1429
*1258 FILLER_100_1441
*1259 FILLER_100_1453
*1260 FILLER_100_1465
*1261 FILLER_100_1477
*1262 FILLER_100_1483
*1263 FILLER_100_1485
*1264 FILLER_100_1497
*1265 FILLER_100_15
*1266 FILLER_100_1509
*1267 FILLER_100_1521
*1268 FILLER_100_153
*1269 FILLER_100_1533
*1270 FILLER_100_1539
*1271 FILLER_100_1541
*1272 FILLER_100_1553
*1273 FILLER_100_1565
*1274 FILLER_100_1577
*1275 FILLER_100_1589
*1276 FILLER_100_1595
*1277 FILLER_100_1597
*1278 FILLER_100_1609
*1279 FILLER_100_1621
*1280 FILLER_100_1633
*1281 FILLER_100_1645
*1282 FILLER_100_165
*1283 FILLER_100_1651
*1284 FILLER_100_1653
*1285 FILLER_100_1665
*1286 FILLER_100_1677
*1287 FILLER_100_1689
*1288 FILLER_100_1701
*1289 FILLER_100_1707
*1290 FILLER_100_1709
*1291 FILLER_100_1721
*1292 FILLER_100_1733
*1293 FILLER_100_1745
*1294 FILLER_100_1757
*1295 FILLER_100_1763
*1296 FILLER_100_1765
*1297 FILLER_100_177
*1298 FILLER_100_1777
*1299 FILLER_100_1789
*1300 FILLER_100_1801
*1301 FILLER_100_1813
*1302 FILLER_100_1819
*1303 FILLER_100_1821
*1304 FILLER_100_1833
*1305 FILLER_100_1845
*1306 FILLER_100_1857
*1307 FILLER_100_1869
*1308 FILLER_100_1875
*1309 FILLER_100_1877
*1310 FILLER_100_1889
*1311 FILLER_100_189
*1312 FILLER_100_1901
*1313 FILLER_100_1913
*1314 FILLER_100_1925
*1315 FILLER_100_195
*1316 FILLER_100_197
*1317 FILLER_100_209
*1318 FILLER_100_221
*1319 FILLER_100_233
*1320 FILLER_100_245
*1321 FILLER_100_251
*1322 FILLER_100_253
*1323 FILLER_100_265
*1324 FILLER_100_27
*1325 FILLER_100_277
*1326 FILLER_100_289
*1327 FILLER_100_29
*1328 FILLER_100_3
*1329 FILLER_100_301
*1330 FILLER_100_307
*1331 FILLER_100_309
*1332 FILLER_100_321
*1333 FILLER_100_333
*1334 FILLER_100_345
*1335 FILLER_100_357
*1336 FILLER_100_363
*1337 FILLER_100_365
*1338 FILLER_100_377
*1339 FILLER_100_389
*1340 FILLER_100_401
*1341 FILLER_100_41
*1342 FILLER_100_413
*1343 FILLER_100_419
*1344 FILLER_100_421
*1345 FILLER_100_433
*1346 FILLER_100_445
*1347 FILLER_100_457
*1348 FILLER_100_469
*1349 FILLER_100_475
*1350 FILLER_100_477
*1351 FILLER_100_489
*1352 FILLER_100_501
*1353 FILLER_100_513
*1354 FILLER_100_525
*1355 FILLER_100_53
*1356 FILLER_100_531
*1357 FILLER_100_533
*1358 FILLER_100_545
*1359 FILLER_100_557
*1360 FILLER_100_569
*1361 FILLER_100_581
*1362 FILLER_100_587
*1363 FILLER_100_589
*1364 FILLER_100_601
*1365 FILLER_100_613
*1366 FILLER_100_625
*1367 FILLER_100_637
*1368 FILLER_100_643
*1369 FILLER_100_645
*1370 FILLER_100_65
*1371 FILLER_100_657
*1372 FILLER_100_669
*1373 FILLER_100_681
*1374 FILLER_100_693
*1375 FILLER_100_699
*1376 FILLER_100_701
*1377 FILLER_100_713
*1378 FILLER_100_725
*1379 FILLER_100_737
*1380 FILLER_100_749
*1381 FILLER_100_755
*1382 FILLER_100_757
*1383 FILLER_100_769
*1384 FILLER_100_77
*1385 FILLER_100_781
*1386 FILLER_100_793
*1387 FILLER_100_805
*1388 FILLER_100_811
*1389 FILLER_100_813
*1390 FILLER_100_825
*1391 FILLER_100_83
*1392 FILLER_100_837
*1393 FILLER_100_849
*1394 FILLER_100_85
*1395 FILLER_100_861
*1396 FILLER_100_867
*1397 FILLER_100_869
*1398 FILLER_100_881
*1399 FILLER_100_893
*1400 FILLER_100_905
*1401 FILLER_100_917
*1402 FILLER_100_923
*1403 FILLER_100_925
*1404 FILLER_100_937
*1405 FILLER_100_949
*1406 FILLER_100_961
*1407 FILLER_100_97
*1408 FILLER_100_973
*1409 FILLER_100_979
*1410 FILLER_100_981
*1411 FILLER_100_993
*1412 FILLER_101_1001
*1413 FILLER_101_1007
*1414 FILLER_101_1009
*1415 FILLER_101_1021
*1416 FILLER_101_1033
*1417 FILLER_101_1045
*1418 FILLER_101_105
*1419 FILLER_101_1057
*1420 FILLER_101_1063
*1421 FILLER_101_1065
*1422 FILLER_101_1077
*1423 FILLER_101_1089
*1424 FILLER_101_1101
*1425 FILLER_101_111
*1426 FILLER_101_1113
*1427 FILLER_101_1119
*1428 FILLER_101_1121
*1429 FILLER_101_113
*1430 FILLER_101_1133
*1431 FILLER_101_1145
*1432 FILLER_101_1157
*1433 FILLER_101_1169
*1434 FILLER_101_1175
*1435 FILLER_101_1177
*1436 FILLER_101_1189
*1437 FILLER_101_1201
*1438 FILLER_101_1213
*1439 FILLER_101_1225
*1440 FILLER_101_1231
*1441 FILLER_101_1233
*1442 FILLER_101_1245
*1443 FILLER_101_125
*1444 FILLER_101_1257
*1445 FILLER_101_1269
*1446 FILLER_101_1281
*1447 FILLER_101_1287
*1448 FILLER_101_1289
*1449 FILLER_101_1301
*1450 FILLER_101_1313
*1451 FILLER_101_1325
*1452 FILLER_101_1337
*1453 FILLER_101_1343
*1454 FILLER_101_1345
*1455 FILLER_101_1357
*1456 FILLER_101_1369
*1457 FILLER_101_137
*1458 FILLER_101_1381
*1459 FILLER_101_1393
*1460 FILLER_101_1399
*1461 FILLER_101_1401
*1462 FILLER_101_1413
*1463 FILLER_101_1425
*1464 FILLER_101_1437
*1465 FILLER_101_1449
*1466 FILLER_101_1455
*1467 FILLER_101_1457
*1468 FILLER_101_1469
*1469 FILLER_101_1481
*1470 FILLER_101_149
*1471 FILLER_101_1493
*1472 FILLER_101_15
*1473 FILLER_101_1505
*1474 FILLER_101_1511
*1475 FILLER_101_1513
*1476 FILLER_101_1525
*1477 FILLER_101_1537
*1478 FILLER_101_1549
*1479 FILLER_101_1561
*1480 FILLER_101_1567
*1481 FILLER_101_1569
*1482 FILLER_101_1581
*1483 FILLER_101_1593
*1484 FILLER_101_1605
*1485 FILLER_101_161
*1486 FILLER_101_1617
*1487 FILLER_101_1623
*1488 FILLER_101_1625
*1489 FILLER_101_1637
*1490 FILLER_101_1649
*1491 FILLER_101_1661
*1492 FILLER_101_167
*1493 FILLER_101_1673
*1494 FILLER_101_1679
*1495 FILLER_101_1681
*1496 FILLER_101_169
*1497 FILLER_101_1693
*1498 FILLER_101_1705
*1499 FILLER_101_1717
*1500 FILLER_101_1729
*1501 FILLER_101_1735
*1502 FILLER_101_1737
*1503 FILLER_101_1749
*1504 FILLER_101_1761
*1505 FILLER_101_1773
*1506 FILLER_101_1785
*1507 FILLER_101_1791
*1508 FILLER_101_1793
*1509 FILLER_101_1805
*1510 FILLER_101_181
*1511 FILLER_101_1817
*1512 FILLER_101_1829
*1513 FILLER_101_1841
*1514 FILLER_101_1847
*1515 FILLER_101_1849
*1516 FILLER_101_1861
*1517 FILLER_101_1873
*1518 FILLER_101_1885
*1519 FILLER_101_1897
*1520 FILLER_101_1903
*1521 FILLER_101_1905
*1522 FILLER_101_1917
*1523 FILLER_101_193
*1524 FILLER_101_205
*1525 FILLER_101_217
*1526 FILLER_101_223
*1527 FILLER_101_225
*1528 FILLER_101_237
*1529 FILLER_101_249
*1530 FILLER_101_261
*1531 FILLER_101_27
*1532 FILLER_101_273
*1533 FILLER_101_279
*1534 FILLER_101_281
*1535 FILLER_101_293
*1536 FILLER_101_3
*1537 FILLER_101_305
*1538 FILLER_101_317
*1539 FILLER_101_329
*1540 FILLER_101_335
*1541 FILLER_101_337
*1542 FILLER_101_349
*1543 FILLER_101_361
*1544 FILLER_101_373
*1545 FILLER_101_385
*1546 FILLER_101_39
*1547 FILLER_101_391
*1548 FILLER_101_393
*1549 FILLER_101_405
*1550 FILLER_101_417
*1551 FILLER_101_429
*1552 FILLER_101_441
*1553 FILLER_101_447
*1554 FILLER_101_449
*1555 FILLER_101_461
*1556 FILLER_101_473
*1557 FILLER_101_485
*1558 FILLER_101_497
*1559 FILLER_101_503
*1560 FILLER_101_505
*1561 FILLER_101_51
*1562 FILLER_101_517
*1563 FILLER_101_529
*1564 FILLER_101_541
*1565 FILLER_101_55
*1566 FILLER_101_553
*1567 FILLER_101_559
*1568 FILLER_101_561
*1569 FILLER_101_57
*1570 FILLER_101_573
*1571 FILLER_101_585
*1572 FILLER_101_597
*1573 FILLER_101_609
*1574 FILLER_101_615
*1575 FILLER_101_617
*1576 FILLER_101_629
*1577 FILLER_101_641
*1578 FILLER_101_653
*1579 FILLER_101_665
*1580 FILLER_101_671
*1581 FILLER_101_673
*1582 FILLER_101_685
*1583 FILLER_101_69
*1584 FILLER_101_697
*1585 FILLER_101_709
*1586 FILLER_101_721
*1587 FILLER_101_727
*1588 FILLER_101_729
*1589 FILLER_101_741
*1590 FILLER_101_753
*1591 FILLER_101_765
*1592 FILLER_101_777
*1593 FILLER_101_783
*1594 FILLER_101_785
*1595 FILLER_101_797
*1596 FILLER_101_809
*1597 FILLER_101_81
*1598 FILLER_101_821
*1599 FILLER_101_833
*1600 FILLER_101_839
*1601 FILLER_101_841
*1602 FILLER_101_853
*1603 FILLER_101_865
*1604 FILLER_101_877
*1605 FILLER_101_889
*1606 FILLER_101_895
*1607 FILLER_101_897
*1608 FILLER_101_909
*1609 FILLER_101_921
*1610 FILLER_101_93
*1611 FILLER_101_933
*1612 FILLER_101_945
*1613 FILLER_101_951
*1614 FILLER_101_953
*1615 FILLER_101_965
*1616 FILLER_101_977
*1617 FILLER_101_989
*1618 FILLER_102_1005
*1619 FILLER_102_1017
*1620 FILLER_102_1029
*1621 FILLER_102_1035
*1622 FILLER_102_1037
*1623 FILLER_102_1049
*1624 FILLER_102_1061
*1625 FILLER_102_1073
*1626 FILLER_102_1085
*1627 FILLER_102_109
*1628 FILLER_102_1091
*1629 FILLER_102_1093
*1630 FILLER_102_1105
*1631 FILLER_102_1117
*1632 FILLER_102_1129
*1633 FILLER_102_1141
*1634 FILLER_102_1147
*1635 FILLER_102_1149
*1636 FILLER_102_1161
*1637 FILLER_102_1173
*1638 FILLER_102_1185
*1639 FILLER_102_1197
*1640 FILLER_102_1203
*1641 FILLER_102_1205
*1642 FILLER_102_121
*1643 FILLER_102_1217
*1644 FILLER_102_1229
*1645 FILLER_102_1241
*1646 FILLER_102_1253
*1647 FILLER_102_1259
*1648 FILLER_102_1261
*1649 FILLER_102_1273
*1650 FILLER_102_1285
*1651 FILLER_102_1297
*1652 FILLER_102_1309
*1653 FILLER_102_1315
*1654 FILLER_102_1317
*1655 FILLER_102_1329